-------------------------------------------------------
          Amber 20 PMEMD                              2020
          -------------------------------------------------------

  [-O]verwriting output

File Assignments:

 Here is the input file:

npt for deltaG calculation
 &cntrl
  imin=0,
  irest=0,
  ntx=1,
  ig=-1,
  nstlim=9000,
  dt=0.001,
  cut=10.0,
  ntp=1,
  pres0=1.01325,
  tempi=0.0,
  temp0=0.0,
  ntt=3,
  gamma_ln=2.0,
  ntpr=500,
  ntwr=500,
  ntwx=10000,
  ntave=500,
  ioutfm=1,
  ntwv=-1,
  iwrap=1,
  ntc=2,
  ntf=2,
/
&ewald
nfft1=48, nfft2=48, nfft3=48,
/

Note: ig = -1. Setting random seed to   593092 based on wallclock time in
      microseconds.

--------------------------------------------------------------------------------
   1.  RESOURCE   USE:
--------------------------------------------------------------------------------

 getting box info from netcdf restart file
 NATOM  =   70014 NTYPES =      34 NBONH =   50760 MBONA  =   19358
 NTHETH =    7724 MTHETA =    4884 NPHIH =   15657 MPHIA  =   15277
 NHPARM =       0 NPARM  =       0 NNB   =  148544 NRES   =   16222
 NBONA  =   19358 NTHETA =    4884 NPHIA =   15277 NUMBND =     116
 NUMANG =     267 NPTRA  =     252 NATYP =      63 NPHB   =       0
 IFBOX  =       1 NMXRS  =      96 IFCAP =       0 NEXTRA =   15789
 NCOPY  =       0

     BOX TYPE: RECTILINEAR

--------------------------------------------------------------------------------
   2.  CONTROL  DATA  FOR  THE  RUN
--------------------------------------------------------------------------------

default_name

General flags:
     imin    =       0, nmropt  =       0

Nature and format of input:
     ntx     =       1, irest   =       0, ntrx    =       1

Nature and format of output:
     ntxo    =       2, ntpr    =     500, ntrx    =       1, ntwr    =     500
     iwrap   =       1, ntwx    =   10000, ntwv    =      -1, ntwe    =       0
     ioutfm  =       1, ntwprt  =       0, idecomp =       0, rbornstat=      0

Potential function:
     ntf     =       2, ntb     =       2, igb     =       0, nsnb    =      25
     ipol    =       0, gbsa    =       0, iesp    =       0
     dielc   =   1.00000, cut     =  10.00000, intdiel =   1.00000

Frozen or restrained atoms:
     ibelly  =       0, ntr     =       0

Molecular dynamics:
     nstlim  =      9000, nscm    =      1000, nrespa  =         1
     t       =   0.00000, dt      =   0.00100, vlimit  =  -1.00000

Langevin dynamics temperature regulation:
     ig      =  593092
     temp0   =   0.00000, tempi   =   0.00000, gamma_ln=   2.00000

Pressure regulation:
     ntp     =       1
     pres0   =   1.01325, comp    =  44.60000, taup    =   1.00000

SHAKE:
     ntc     =       2, jfastw  =       0
     tol     =   0.00001

Extra-points options:
     frameon =       1, chngmask=       1

Ewald parameters:
     verbose =       0, ew_type =       0, nbflag  =       1, use_pme =       1
     vdwmeth =       1, eedmeth =       1, netfrc  =       1
     Box X =   87.944   Box Y =   94.221   Box Z =   80.394
     Alpha =   90.000   Beta  =   90.000   Gamma =   90.000
     NFFT1 =   48       NFFT2 =   48       NFFT3 =   48
     Cutoff=   10.000   Tol   =0.100E-04
     Ewald Coefficient =  0.27511
     Interpolation order =    4

--------------------------------------------------------------------------------
   3.  ATOMIC COORDINATES AND VELOCITIES
--------------------------------------------------------------------------------

default_name
 begin time read from input coords =     0.000 ps

 Number of triangulated 3-point waters found:    15789

     Sum of charges from parm topology file =  -7.99991354
     Assuming uniform neutralizing plasma

--------------------------------------------------------------------------------
   4.  RESULTS
 NSTEP =        0   TIME(PS) =       0.000  TEMP(K) =     0.00  PRESS = -1497.4
 Etot   =   -345673.2198  EKtot   =         0.0000  EPtot      =   -345673.2198
 BOND   =       245.3733  ANGLE   =      1108.5299  DIHED      =      1867.3232
 UB     =         0.0000  IMP     =         0.0000  CMAP       =       303.9571
 1-4 NB =      1376.4033  1-4 EEL =     16504.7361  VDWAALS    =     73519.3837
 EELEC  =   -440598.9264  EHBOND  =         0.0000  RESTRAINT  =         0.0000
 EKCMT  =         0.0000  VIRIAL  =     21536.7654  VOLUME     =    666157.1112
                                                    Density    =         0.8316
 ------------------------------------------------------------------------------

      A V E R A G E S   O V E R     500 S T E P S

 NSTEP =      500   TIME(PS) =       0.500  TEMP(K) =    25.12  PRESS =   635.1
 Etot   =   -233897.0247  EKtot   =      2793.5388  EPtot      =   -236690.5635
 BOND   =       240.6222  ANGLE   =      1101.3082  DIHED      =      1873.9956
 UB     =         0.0000  IMP     =         0.0000  CMAP       =       304.8616
 1-4 NB =      1390.5545  1-4 EEL =     16523.5831  VDWAALS    =     41937.6446
 EELEC  =   -300063.1335  EHBOND  =         0.0000  RESTRAINT  =         0.0000
 EKCMT  =      2100.4531  VIRIAL  =     -7095.7890  VOLUME     =    678853.3753
                                                    Density    =         0.8161
 ------------------------------------------------------------------------------

      R M S  F L U C T U A T I O N S

 NSTEP =      500   TIME(PS) =       0.500  TEMP(K) =    50.20  PRESS =  2936.0
 Etot   =      4218.7016  EKtot   =      5582.5089  EPtot      =      5110.0215
 BOND   =         3.1567  ANGLE   =         3.8439  DIHED      =         7.3230
 UB     =         0.0000  IMP     =         0.0000  CMAP       =         1.7869
 1-4 NB =         6.4587  1-4 EEL =        13.9747  VDWAALS    =      8146.8227
 EELEC  =      9205.6907  EHBOND  =         0.0000  RESTRAINT  =         0.0000
 EKCMT  =       653.0965  VIRIAL  =     42795.9918  VOLUME     =      3133.4288
                                                    Density    =         0.0038
 ------------------------------------------------------------------------------

      A V E R A G E S   O V E R     500 S T E P S

 NSTEP =     1000   TIME(PS) =       1.000  TEMP(K) =    10.74  PRESS =  -596.6
 Etot   =   -237775.2552  EKtot   =      1194.4384  EPtot      =   -238969.6936
 BOND   =       239.0888  ANGLE   =      1109.9477  DIHED      =      1890.7370
 UB     =         0.0000  IMP     =         0.0000  CMAP       =       307.7379
 1-4 NB =      1399.5403  1-4 EEL =     16550.4791  VDWAALS    =     39790.1785
 EELEC  =   -300257.4029  EHBOND  =         0.0000  RESTRAINT  =         0.0000
 EKCMT  =      1026.4673  VIRIAL  =      9671.9774  VOLUME     =    670769.3809
                                                    Density    =         0.8259
 ------------------------------------------------------------------------------

      R M S  F L U C T U A T I O N S

 NSTEP =     1000   TIME(PS) =       1.000  TEMP(K) =     2.30  PRESS =    94.4
 Etot   =       710.9733  EKtot   =       255.6197  EPtot      =       455.3961
 BOND   =         1.3288  ANGLE   =         3.4102  DIHED      =         5.3672
 UB     =         0.0000  IMP     =         0.0000  CMAP       =         1.2189
 1-4 NB =         1.8965  1-4 EEL =         4.6573  VDWAALS    =       402.4426
 EELEC  =       861.8676  EHBOND  =         0.0000  RESTRAINT  =         0.0000
 EKCMT  =       219.7920  VIRIAL  =      1613.0801  VOLUME     =      2597.3504
                                                    Density    =         0.0032
 ------------------------------------------------------------------------------

      A V E R A G E S   O V E R     500 S T E P S

 NSTEP =     1500   TIME(PS) =       1.500  TEMP(K) =     5.28  PRESS =  -347.4
 Etot   =   -239524.9545  EKtot   =       587.5551  EPtot      =   -240112.5096
 BOND   =       239.5411  ANGLE   =      1107.7319  DIHED      =      1896.3770
 UB     =         0.0000  IMP     =         0.0000  CMAP       =       305.6071
 1-4 NB =      1400.0447  1-4 EEL =     16548.9267  VDWAALS    =     40685.0539
 EELEC  =   -302295.7920  EHBOND  =         0.0000  RESTRAINT  =         0.0000
 EKCMT  =       507.6346  VIRIAL  =      5489.5656  VOLUME     =    663963.8557
                                                    Density    =         0.8344
 ------------------------------------------------------------------------------

      R M S  F L U C T U A T I O N S

 NSTEP =     1500   TIME(PS) =       1.500  TEMP(K) =     1.02  PRESS =    36.6
 Etot   =       345.3431  EKtot   =       113.1026  EPtot      =       232.3327
 BOND   =         0.9524  ANGLE   =         3.4123  DIHED      =         2.6622
 UB     =         0.0000  IMP     =         0.0000  CMAP       =         1.6201
 1-4 NB =         1.6931  1-4 EEL =         4.3077  VDWAALS    =       120.2254
 EELEC  =       347.8458  EHBOND  =         0.0000  RESTRAINT  =         0.0000
 EKCMT  =        96.3071  VIRIAL  =       630.5237  VOLUME     =      1482.8448
                                                    Density    =         0.0019
 ------------------------------------------------------------------------------

      A V E R A G E S   O V E R     500 S T E P S

 NSTEP =     2000   TIME(PS) =       2.000  TEMP(K) =     2.70  PRESS =  -298.0
 Etot   =   -240401.4495  EKtot   =       300.3329  EPtot      =   -240701.7824
 BOND   =       238.3675  ANGLE   =      1102.0615  DIHED      =      1898.9681
 UB     =         0.0000  IMP     =         0.0000  CMAP       =       304.1903
 1-4 NB =      1403.8122  1-4 EEL =     16556.1235  VDWAALS    =     40927.2675
 EELEC  =   -303132.5730  EHBOND  =         0.0000  RESTRAINT  =         0.0000
 EKCMT  =       262.3309  VIRIAL  =      4504.3277  VOLUME     =    659406.1504
                                                    Density    =         0.8401
 ------------------------------------------------------------------------------

      R M S  F L U C T U A T I O N S

 NSTEP =     2000   TIME(PS) =       2.000  TEMP(K) =     0.54  PRESS =    19.3
 Etot   =       177.1575  EKtot   =        59.7156  EPtot      =       117.6822
 BOND   =         0.9215  ANGLE   =         1.7693  DIHED      =         2.1601
 UB     =         0.0000  IMP     =         0.0000  CMAP       =         0.5696
 1-4 NB =         1.4031  1-4 EEL =         5.4153  VDWAALS    =        29.6140
 EELEC  =       124.6133  EHBOND  =         0.0000  RESTRAINT  =         0.0000
 EKCMT  =        52.0669  VIRIAL  =       228.7852  VOLUME     =      1264.7986
                                                    Density    =         0.0016
 ------------------------------------------------------------------------------

      A V E R A G E S   O V E R     500 S T E P S

 NSTEP =     2500   TIME(PS) =       2.500  TEMP(K) =     1.44  PRESS =  -285.5
 Etot   =   -240858.6659  EKtot   =       159.6402  EPtot      =   -241018.3061
 BOND   =       237.3409  ANGLE   =      1101.3119  DIHED      =      1900.5617
 UB     =         0.0000  IMP     =         0.0000  CMAP       =       303.2593
 1-4 NB =      1407.8135  1-4 EEL =     16561.5580  VDWAALS    =     41014.0644
 EELEC  =   -303544.2158  EHBOND  =         0.0000  RESTRAINT  =         0.0000
 EKCMT  =       140.9919  VIRIAL  =      4179.2961  VOLUME     =    655016.2839
                                                    Density    =         0.8458
 ------------------------------------------------------------------------------

      R M S  F L U C T U A T I O N S

 NSTEP =     2500   TIME(PS) =       2.500  TEMP(K) =     0.24  PRESS =    13.8
 Etot   =        95.1572  EKtot   =        26.1474  EPtot      =        69.3218
 BOND   =         0.5954  ANGLE   =         0.5567  DIHED      =         0.6086
 UB     =         0.0000  IMP     =         0.0000  CMAP       =         0.4748
 1-4 NB =         1.1655  1-4 EEL =         2.8912  VDWAALS    =        40.7844
 EELEC  =       106.2098  EHBOND  =         0.0000  RESTRAINT  =         0.0000
 EKCMT  =        22.4278  VIRIAL  =       215.6461  VOLUME     =      1190.3593
                                                    Density    =         0.0015
 ------------------------------------------------------------------------------

      A V E R A G E S   O V E R     500 S T E P S

 NSTEP =     7500   TIME(PS) =       7.500  TEMP(K) =     0.88  PRESS =  -524.7
 Etot   =   -242604.8116  EKtot   =        97.9770  EPtot      =   -242702.7886
 BOND   =       236.5992  ANGLE   =      1102.6060  DIHED      =      1907.7417
 UB     =         0.0000  IMP     =         0.0000  CMAP       =       295.5484
 1-4 NB =      1409.0820  1-4 EEL =     16555.5165  VDWAALS    =     40577.7785
 EELEC  =   -304787.6608  EHBOND  =         0.0000  RESTRAINT  =         0.0000
 EKCMT  =        95.5746  VIRIAL  =      6904.4373  VOLUME     =    600954.2015
                                                    Density    =         0.9219
 ------------------------------------------------------------------------------

      R M S  F L U C T U A T I O N S

 NSTEP =     7500   TIME(PS) =       7.500  TEMP(K) =     0.01  PRESS =     7.8
 Etot   =        70.2748  EKtot   =         1.6245  EPtot      =        69.3208
 BOND   =         0.1024  ANGLE   =         0.5463  DIHED      =         0.4327
 UB     =         0.0000  IMP     =         0.0000  CMAP       =         0.1505
 1-4 NB =         0.0879  1-4 EEL =         1.4001  VDWAALS    =        14.4617
 EELEC  =        80.7596  EHBOND  =         0.0000  RESTRAINT  =         0.0000
 EKCMT  =         1.7051  VIRIAL  =       124.8793  VOLUME     =      2034.1535
                                                    Density    =         0.0031
 ------------------------------------------------------------------------------

      A V E R A G E S   O V E R     500 S T E P S

 NSTEP =     8000   TIME(PS) =       8.000  TEMP(K) =     0.99  PRESS =  -515.2
 Etot   =   -242854.3615  EKtot   =       109.7830  EPtot      =   -242964.1445
 BOND   =       236.5952  ANGLE   =      1103.3168  DIHED      =      1908.0620
 UB     =         0.0000  IMP     =         0.0000  CMAP       =       295.3903
 1-4 NB =      1409.1250  1-4 EEL =     16555.1175  VDWAALS    =     40591.8694
 EELEC  =   -305063.6207  EHBOND  =         0.0000  RESTRAINT  =         0.0000
 EKCMT  =       107.1966  VIRIAL  =      6715.1105  VOLUME     =    594038.8833
                                                    Density    =         0.9326
 ------------------------------------------------------------------------------

      R M S  F L U C T U A T I O N S

 NSTEP =     8000   TIME(PS) =       8.000  TEMP(K) =     0.06  PRESS =     4.1
 Etot   =        77.2324  EKtot   =         7.0459  EPtot      =        83.6461
 BOND   =         0.0838  ANGLE   =         0.3437  DIHED      =         0.5118
 UB     =         0.0000  IMP     =         0.0000  CMAP       =         0.0686
 1-4 NB =         0.2388  1-4 EEL =         0.6700  VDWAALS    =         9.2126
 EELEC  =        88.6875  EHBOND  =         0.0000  RESTRAINT  =         0.0000
 EKCMT  =         7.0257  VIRIAL  =        57.8298  VOLUME     =      1974.7444
                                                    Density    =         0.0031
 ------------------------------------------------------------------------------

      A V E R A G E S   O V E R     500 S T E P S

 NSTEP =     8500   TIME(PS) =       8.500  TEMP(K) =     1.02  PRESS =  -516.7
 Etot   =   -243125.5853  EKtot   =       113.4608  EPtot      =   -243239.0461
 BOND   =       236.3858  ANGLE   =      1101.9216  DIHED      =      1908.2132
 UB     =         0.0000  IMP     =         0.0000  CMAP       =       294.8730
 1-4 NB =      1410.0467  1-4 EEL =     16558.0358  VDWAALS    =     40593.5970
 EELEC  =   -305342.1193  EHBOND  =         0.0000  RESTRAINT  =         0.0000
 EKCMT  =       110.8985  VIRIAL  =      6662.1638  VOLUME     =    587260.8802
                                                    Density    =         0.9434
 ------------------------------------------------------------------------------

      R M S  F L U C T U A T I O N S

 NSTEP =     8500   TIME(PS) =       8.500  TEMP(K) =     0.02  PRESS =     9.5
 Etot   =        77.9523  EKtot   =         2.2942  EPtot      =        77.9651
 BOND   =         0.0911  ANGLE   =         0.2793  DIHED      =         0.2675
 UB     =         0.0000  IMP     =         0.0000  CMAP       =         0.3523
 1-4 NB =         0.3744  1-4 EEL =         0.6989  VDWAALS    =        23.4918
 EELEC  =        61.3182  EHBOND  =         0.0000  RESTRAINT  =         0.0000
 EKCMT  =         2.2374  VIRIAL  =       104.5269  VOLUME     =      1948.2735
                                                    Density    =         0.0031
 ------------------------------------------------------------------------------

      A V E R A G E S   O V E R     500 S T E P S

 NSTEP =     9000   TIME(PS) =       9.000  TEMP(K) =     1.20  PRESS =  -557.8
 Etot   =   -243419.4982  EKtot   =       133.6902  EPtot      =   -243553.1884
 BOND   =       236.1148  ANGLE   =      1101.2768  DIHED      =      1907.9934
 UB     =         0.0000  IMP     =         0.0000  CMAP       =       295.2329
 1-4 NB =      1410.6729  1-4 EEL =     16559.0749  VDWAALS    =     40473.4721
 EELEC  =   -305537.0261  EHBOND  =         0.0000  RESTRAINT  =         0.0000
 EKCMT  =       130.8338  VIRIAL  =      7118.6296  VOLUME     =    580246.8691
                                                    Density    =         0.9548
 ------------------------------------------------------------------------------

      R M S  F L U C T U A T I O N S

 NSTEP =     9000   TIME(PS) =       9.000  TEMP(K) =     0.05  PRESS =     6.1
 Etot   =        92.7762  EKtot   =         5.7765  EPtot      =        98.1366
 BOND   =         0.1353  ANGLE   =         0.3890  DIHED      =         0.1139
 UB     =         0.0000  IMP     =         0.0000  CMAP       =         0.4421
 1-4 NB =         0.2960  1-4 EEL =         0.4253  VDWAALS    =        22.2737
 EELEC  =        78.0286  EHBOND  =         0.0000  RESTRAINT  =         0.0000
 EKCMT  =         5.6231  VIRIAL  =        59.8937  VOLUME     =      2089.6622
                                                    Density    =         0.0034
 ------------------------------------------------------------------------------

      A V E R A G E S   O V E R    9000 S T E P S

 NSTEP =     9000   TIME(PS) =       9.000  TEMP(K) =     3.05  PRESS =  -358.6
 Etot   =   -241088.8208  EKtot   =       339.2346  EPtot      =   -241428.0554
 BOND   =       237.1964  ANGLE   =      1102.6196  DIHED      =      1903.6834
 UB     =         0.0000  IMP     =         0.0000  CMAP       =       300.6169
 1-4 NB =      1406.7994  1-4 EEL =     16554.7328  VDWAALS    =     40797.5472
 EELEC  =   -303731.2511  EHBOND  =         0.0000  RESTRAINT  =         0.0000
 EKCMT  =       281.1489  VIRIAL  =      5083.9621  VOLUME     =    632165.2739
                                                    Density    =         0.8782
 ------------------------------------------------------------------------------

      R M S  F L U C T U A T I O N S

 NSTEP =     9000   TIME(PS) =       9.000  TEMP(K) =    13.23  PRESS =   741.6
 Etot   =      2398.9731  EKtot   =      1471.3237  EPtot      =      1991.1945
 BOND   =         1.5574  ANGLE   =         2.8412  DIHED      =         9.2935
 UB     =         0.0000  IMP     =         0.0000  CMAP       =         4.2400
 1-4 NB =         5.3413  1-4 EEL =         9.1058  VDWAALS    =      1967.0203
 EELEC  =      2625.6533  EHBOND  =         0.0000  RESTRAINT  =         0.0000
 EKCMT  =       525.3682  VIRIAL  =     10627.2166  VOLUME     =     28737.3158
                                                    Density    =         0.0405
 ------------------------------------------------------------------------------
