-------------------------------------------------------
          Amber 20 PMEMD                              2020
          -------------------------------------------------------

  [-O]verwriting output

File Assignments:

 Here is the input file:

npt for deltaG calculation
 &cntrl
  imin=0,
  irest=0,
  ntx=1,
  ig=-1,
  nstlim=9000,
  dt=0.001,
  cut=10.0,
  ntp=1,
  pres0=1.01325,
  tempi=0.0,
  temp0=0.0,
  ntt=3,
  gamma_ln=2.0,
  ntpr=500,
  ntwr=500,
  ntwx=10000,
  ntave=500,
  ioutfm=1,
  ntwv=-1,
  iwrap=1,
  ntc=2,
  ntf=2,
/
&ewald
nfft1=48, nfft2=48, nfft3=48,
/

Note: ig = -1. Setting random seed to   497003 based on wallclock time in
      microseconds.

--------------------------------------------------------------------------------
   1.  RESOURCE   USE:
--------------------------------------------------------------------------------

 getting box info from netcdf restart file
 NATOM  =   70018 NTYPES =      35 NBONH =   50764 MBONA  =   19358
 NTHETH =    7727 MTHETA =    4881 NPHIH =   15658 MPHIA  =   15276
 NHPARM =       0 NPARM  =       0 NNB   =  148551 NRES   =   16223
 NBONA  =   19358 NTHETA =    4881 NPHIA =   15276 NUMBND =     117
 NUMANG =     269 NPTRA  =     252 NATYP =      64 NPHB   =       0
 IFBOX  =       1 NMXRS  =      96 IFCAP =       0 NEXTRA =   15790
 NCOPY  =       0

     BOX TYPE: RECTILINEAR

--------------------------------------------------------------------------------
   2.  CONTROL  DATA  FOR  THE  RUN
--------------------------------------------------------------------------------

default_name

General flags:
     imin    =       0, nmropt  =       0

Nature and format of input:
     ntx     =       1, irest   =       0, ntrx    =       1

Nature and format of output:
     ntxo    =       2, ntpr    =     500, ntrx    =       1, ntwr    =     500
     iwrap   =       1, ntwx    =   10000, ntwv    =      -1, ntwe    =       0
     ioutfm  =       1, ntwprt  =       0, idecomp =       0, rbornstat=      0

Potential function:
     ntf     =       2, ntb     =       2, igb     =       0, nsnb    =      25
     ipol    =       0, gbsa    =       0, iesp    =       0
     dielc   =   1.00000, cut     =  10.00000, intdiel =   1.00000

Frozen or restrained atoms:
     ibelly  =       0, ntr     =       0

Molecular dynamics:
     nstlim  =      9000, nscm    =      1000, nrespa  =         1
     t       =   0.00000, dt      =   0.00100, vlimit  =  -1.00000

Langevin dynamics temperature regulation:
     ig      =  497003
     temp0   =   0.00000, tempi   =   0.00000, gamma_ln=   2.00000

Pressure regulation:
     ntp     =       1
     pres0   =   1.01325, comp    =  44.60000, taup    =   1.00000

SHAKE:
     ntc     =       2, jfastw  =       0
     tol     =   0.00001

Extra-points options:
     frameon =       1, chngmask=       1

Ewald parameters:
     verbose =       0, ew_type =       0, nbflag  =       1, use_pme =       1
     vdwmeth =       1, eedmeth =       1, netfrc  =       1
     Box X =   87.944   Box Y =   94.221   Box Z =   80.394
     Alpha =   90.000   Beta  =   90.000   Gamma =   90.000
     NFFT1 =   48       NFFT2 =   48       NFFT3 =   48
     Cutoff=   10.000   Tol   =0.100E-04
     Ewald Coefficient =  0.27511
     Interpolation order =    4

--------------------------------------------------------------------------------
   3.  ATOMIC COORDINATES AND VELOCITIES
--------------------------------------------------------------------------------

default_name
 begin time read from input coords =     0.000 ps

 Number of triangulated 3-point waters found:    15790

     Sum of charges from parm topology file =  -7.99991453
     Assuming uniform neutralizing plasma

--------------------------------------------------------------------------------
   4.  RESULTS
 NSTEP =        0   TIME(PS) =       0.000  TEMP(K) =     0.00  PRESS = -1539.9
 Etot   =   -345532.9336  EKtot   =         0.0000  EPtot      =   -345532.9336
 BOND   =       245.5079  ANGLE   =      1105.3410  DIHED      =      1855.3064
 UB     =         0.0000  IMP     =         0.0000  CMAP       =       300.6799
 1-4 NB =      1373.7310  1-4 EEL =     16498.0742  VDWAALS    =     73404.9309
 EELEC  =   -440316.5049  EHBOND  =         0.0000  RESTRAINT  =         0.0000
 EKCMT  =         0.0000  VIRIAL  =     22148.5536  VOLUME     =    666157.1112
                                                    Density    =         0.8316
 ------------------------------------------------------------------------------

      A V E R A G E S   O V E R     500 S T E P S

 NSTEP =      500   TIME(PS) =       0.500  TEMP(K) =    25.12  PRESS =   620.7
 Etot   =   -233825.3623  EKtot   =      2793.2003  EPtot      =   -236618.5627
 BOND   =       240.3043  ANGLE   =      1098.0398  DIHED      =      1866.7462
 UB     =         0.0000  IMP     =         0.0000  CMAP       =       300.5134
 1-4 NB =      1391.1730  1-4 EEL =     16520.8833  VDWAALS    =     41885.7722
 EELEC  =   -299921.9948  EHBOND  =         0.0000  RESTRAINT  =         0.0000
 EKCMT  =      2097.3295  VIRIAL  =     -6889.2267  VOLUME     =    678700.2830
                                                    Density    =         0.8163
 ------------------------------------------------------------------------------

      R M S  F L U C T U A T I O N S

 NSTEP =      500   TIME(PS) =       0.500  TEMP(K) =    50.17  PRESS =  2930.7
 Etot   =      4216.3892  EKtot   =      5578.7543  EPtot      =      5108.0551
 BOND   =         3.1855  ANGLE   =         4.1611  DIHED      =        10.7804
 UB     =         0.0000  IMP     =         0.0000  CMAP       =         1.1794
 1-4 NB =         8.0281  1-4 EEL =        16.9043  VDWAALS    =      8136.3116
 EELEC  =      9194.5326  EHBOND  =         0.0000  RESTRAINT  =         0.0000
 EKCMT  =       648.5912  VIRIAL  =     42719.1567  VOLUME     =      3138.6805
                                                    Density    =         0.0038
 ------------------------------------------------------------------------------

      A V E R A G E S   O V E R     500 S T E P S

 NSTEP =     1000   TIME(PS) =       1.000  TEMP(K) =    10.87  PRESS =  -608.3
 Etot   =   -237718.0201  EKtot   =      1208.2617  EPtot      =   -238926.2818
 BOND   =       237.8801  ANGLE   =      1103.8576  DIHED      =      1889.4471
 UB     =         0.0000  IMP     =         0.0000  CMAP       =       307.0988
 1-4 NB =      1401.2201  1-4 EEL =     16537.6628  VDWAALS    =     39746.5557
 EELEC  =   -300150.0040  EHBOND  =         0.0000  RESTRAINT  =         0.0000
 EKCMT  =      1035.9782  VIRIAL  =      9846.7614  VOLUME     =    670530.4803
                                                    Density    =         0.8262
 ------------------------------------------------------------------------------

      R M S  F L U C T U A T I O N S

 NSTEP =     1000   TIME(PS) =       1.000  TEMP(K) =     2.20  PRESS =    78.8
 Etot   =       720.3773  EKtot   =       244.9480  EPtot      =       475.6349
 BOND   =         1.2559  ANGLE   =         2.4031  DIHED      =         4.1858
 UB     =         0.0000  IMP     =         0.0000  CMAP       =         1.7592
 1-4 NB =         1.4923  1-4 EEL =         7.5426  VDWAALS    =       341.3418
 EELEC  =       814.4923  EHBOND  =         0.0000  RESTRAINT  =         0.0000
 EKCMT  =       210.7891  VIRIAL  =      1379.1358  VOLUME     =      2652.0779
                                                    Density    =         0.0033
 ------------------------------------------------------------------------------

      A V E R A G E S   O V E R     500 S T E P S

 NSTEP =     1500   TIME(PS) =       1.500  TEMP(K) =     5.37  PRESS =  -377.4
 Etot   =   -239504.2209  EKtot   =       596.8194  EPtot      =   -240101.0403
 BOND   =       237.2025  ANGLE   =      1096.6328  DIHED      =      1896.3860
 UB     =         0.0000  IMP     =         0.0000  CMAP       =       301.3789
 1-4 NB =      1406.2790  1-4 EEL =     16547.5217  VDWAALS    =     40601.1988
 EELEC  =   -302187.6401  EHBOND  =         0.0000  RESTRAINT  =         0.0000
 EKCMT  =       513.5277  VIRIAL  =      5920.3509  VOLUME     =    663379.3226
                                                    Density    =         0.8351
 ------------------------------------------------------------------------------

      R M S  F L U C T U A T I O N S

 NSTEP =     1500   TIME(PS) =       1.500  TEMP(K) =     1.07  PRESS =    31.8
 Etot   =       350.3791  EKtot   =       118.8123  EPtot      =       231.7445
 BOND   =         0.8989  ANGLE   =         1.8575  DIHED      =         1.7161
 UB     =         0.0000  IMP     =         0.0000  CMAP       =         2.3920
 1-4 NB =         1.3479  1-4 EEL =         3.6720  VDWAALS    =       111.2078
 EELEC  =       341.6549  EHBOND  =         0.0000  RESTRAINT  =         0.0000
 EKCMT  =       101.9652  VIRIAL  =       566.5656  VOLUME     =      1618.5848
                                                    Density    =         0.0020
 ------------------------------------------------------------------------------

      A V E R A G E S   O V E R     500 S T E P S

 NSTEP =     2000   TIME(PS) =       2.000  TEMP(K) =     2.82  PRESS =  -314.0
 Etot   =   -240399.9041  EKtot   =       313.2789  EPtot      =   -240713.1830
 BOND   =       234.3368  ANGLE   =      1094.2798  DIHED      =      1896.3701
 UB     =         0.0000  IMP     =         0.0000  CMAP       =       301.2200
 1-4 NB =      1408.5788  1-4 EEL =     16551.6140  VDWAALS    =     40830.0460
 EELEC  =   -303029.6285  EHBOND  =         0.0000  RESTRAINT  =         0.0000
 EKCMT  =       271.7906  VIRIAL  =      4735.7845  VOLUME     =    658340.5646
                                                    Density    =         0.8415
 ------------------------------------------------------------------------------

      R M S  F L U C T U A T I O N S

 NSTEP =     2000   TIME(PS) =       2.000  TEMP(K) =     0.49  PRESS =    15.4
 Etot   =       186.7792  EKtot   =        53.9965  EPtot      =       132.8192
 BOND   =         0.5577  ANGLE   =         1.6484  DIHED      =         0.7591
 UB     =         0.0000  IMP     =         0.0000  CMAP       =         0.4574
 1-4 NB =         1.0914  1-4 EEL =         2.4070  VDWAALS    =        46.2697
 EELEC  =       177.4300  EHBOND  =         0.0000  RESTRAINT  =         0.0000
 EKCMT  =        45.7696  VIRIAL  =       267.6071  VOLUME     =      1341.1544
                                                    Density    =         0.0017
 ------------------------------------------------------------------------------

      A V E R A G E S   O V E R     500 S T E P S

 NSTEP =     2500   TIME(PS) =       2.500  TEMP(K) =     1.49  PRESS =  -273.6
 Etot   =   -240882.4116  EKtot   =       165.3385  EPtot      =   -241047.7500
 BOND   =       232.8453  ANGLE   =      1095.3399  DIHED      =      1898.9507
 UB     =         0.0000  IMP     =         0.0000  CMAP       =       300.3947
 1-4 NB =      1411.3778  1-4 EEL =     16556.5136  VDWAALS    =     40997.2937
 EELEC  =   -303540.4656  EHBOND  =         0.0000  RESTRAINT  =         0.0000
 EKCMT  =       144.6432  VIRIAL  =      4008.8713  VOLUME     =    654045.7340
                                                    Density    =         0.8470
 ------------------------------------------------------------------------------

      R M S  F L U C T U A T I O N S

 NSTEP =     2500   TIME(PS) =       2.500  TEMP(K) =     0.28  PRESS =    14.9
 Etot   =        99.0439  EKtot   =        30.8385  EPtot      =        68.2161
 BOND   =         0.4900  ANGLE   =         1.4710  DIHED      =         1.5796
 UB     =         0.0000  IMP     =         0.0000  CMAP       =         0.6068
 1-4 NB =         1.1402  1-4 EEL =         3.1125  VDWAALS    =        38.4765
 EELEC  =       104.1603  EHBOND  =         0.0000  RESTRAINT  =         0.0000
 EKCMT  =        26.5122  VIRIAL  =       232.2003  VOLUME     =      1138.3039
                                                    Density    =         0.0015
 ------------------------------------------------------------------------------

      A V E R A G E S   O V E R     500 S T E P S

 NSTEP =     7500   TIME(PS) =       7.500  TEMP(K) =     0.94  PRESS =  -471.8
 Etot   =   -242740.6548  EKtot   =       104.8891  EPtot      =   -242845.5439
 BOND   =       233.6074  ANGLE   =      1102.6552  DIHED      =      1906.5662
 UB     =         0.0000  IMP     =         0.0000  CMAP       =       293.9314
 1-4 NB =      1411.8254  1-4 EEL =     16559.7136  VDWAALS    =     40624.9894
 EELEC  =   -304978.8326  EHBOND  =         0.0000  RESTRAINT  =         0.0000
 EKCMT  =        99.8567  VIRIAL  =      6218.5760  VOLUME     =    600608.6718
                                                    Density    =         0.9224
 ------------------------------------------------------------------------------

      R M S  F L U C T U A T I O N S

 NSTEP =     7500   TIME(PS) =       7.500  TEMP(K) =     0.03  PRESS =     4.1
 Etot   =        71.6512  EKtot   =         2.8627  EPtot      =        73.8485
 BOND   =         0.2283  ANGLE   =         0.4930  DIHED      =         1.3818
 UB     =         0.0000  IMP     =         0.0000  CMAP       =         0.1390
 1-4 NB =         0.4816  1-4 EEL =         1.3714  VDWAALS    =        11.9131
 EELEC  =        69.4261  EHBOND  =         0.0000  RESTRAINT  =         0.0000
 EKCMT  =         2.4603  VIRIAL  =        43.7483  VOLUME     =      1829.9488
                                                    Density    =         0.0028
 ------------------------------------------------------------------------------

      A V E R A G E S   O V E R     500 S T E P S

 NSTEP =     8000   TIME(PS) =       8.000  TEMP(K) =     0.98  PRESS =  -480.9
 Etot   =   -242995.3521  EKtot   =       109.0889  EPtot      =   -243104.4411
 BOND   =       232.3242  ANGLE   =      1099.4785  DIHED      =      1908.2414
 UB     =         0.0000  IMP     =         0.0000  CMAP       =       295.1477
 1-4 NB =      1414.2588  1-4 EEL =     16565.6786  VDWAALS    =     40592.2397
 EELEC  =   -305211.8100  EHBOND  =         0.0000  RESTRAINT  =         0.0000
 EKCMT  =       102.4394  VIRIAL  =      6272.3806  VOLUME     =    594265.7468
                                                    Density    =         0.9322
 ------------------------------------------------------------------------------

      R M S  F L U C T U A T I O N S

 NSTEP =     8000   TIME(PS) =       8.000  TEMP(K) =     0.01  PRESS =     9.2
 Etot   =        74.2815  EKtot   =         0.7083  EPtot      =        74.3147
 BOND   =         0.5034  ANGLE   =         1.1818  DIHED      =         0.7796
 UB     =         0.0000  IMP     =         0.0000  CMAP       =         0.6886
 1-4 NB =         0.7488  1-4 EEL =         2.5532  VDWAALS    =        21.2110
 EELEC  =        56.8454  EHBOND  =         0.0000  RESTRAINT  =         0.0000
 EKCMT  =         1.1916  VIRIAL  =       104.1542  VOLUME     =      1839.8540
                                                    Density    =         0.0029
 ------------------------------------------------------------------------------

      A V E R A G E S   O V E R     500 S T E P S

 NSTEP =     8500   TIME(PS) =       8.500  TEMP(K) =     1.06  PRESS =  -504.8
 Etot   =   -243261.6464  EKtot   =       118.2591  EPtot      =   -243379.9056
 BOND   =       231.3183  ANGLE   =      1098.0801  DIHED      =      1908.4814
 UB     =         0.0000  IMP     =         0.0000  CMAP       =       296.2896
 1-4 NB =      1415.8520  1-4 EEL =     16570.6747  VDWAALS    =     40529.2318
 EELEC  =   -305429.8335  EHBOND  =         0.0000  RESTRAINT  =         0.0000
 EKCMT  =       113.6883  VIRIAL  =      6519.1770  VOLUME     =    587766.5972
                                                    Density    =         0.9425
 ------------------------------------------------------------------------------

      R M S  F L U C T U A T I O N S

 NSTEP =     8500   TIME(PS) =       8.500  TEMP(K) =     0.04  PRESS =    10.2
 Etot   =        81.9891  EKtot   =         4.1437  EPtot      =        85.9734
 BOND   =         0.3881  ANGLE   =         0.4067  DIHED      =         0.3697
 UB     =         0.0000  IMP     =         0.0000  CMAP       =         0.3562
 1-4 NB =         0.5898  1-4 EEL =         1.4800  VDWAALS    =        15.0886
 EELEC  =        72.8514  EHBOND  =         0.0000  RESTRAINT  =         0.0000
 EKCMT  =         4.4445  VIRIAL  =       113.4139  VOLUME     =      1908.7560
                                                    Density    =         0.0031
 ------------------------------------------------------------------------------

      A V E R A G E S   O V E R     500 S T E P S

 NSTEP =     9000   TIME(PS) =       9.000  TEMP(K) =     1.19  PRESS =  -528.8
 Etot   =   -243555.2752  EKtot   =       132.1825  EPtot      =   -243687.4577
 BOND   =       231.3413  ANGLE   =      1098.6825  DIHED      =      1908.2362
 UB     =         0.0000  IMP     =         0.0000  CMAP       =       295.1625
 1-4 NB =      1415.8262  1-4 EEL =     16569.0779  VDWAALS    =     40477.3714
 EELEC  =   -305683.1556  EHBOND  =         0.0000  RESTRAINT  =         0.0000
 EKCMT  =       128.4048  VIRIAL  =      6761.6865  VOLUME     =    581020.2210
                                                    Density    =         0.9535
 ------------------------------------------------------------------------------

      R M S  F L U C T U A T I O N S

 NSTEP =     9000   TIME(PS) =       9.000  TEMP(K) =     0.07  PRESS =    12.1
 Etot   =        89.9259  EKtot   =         8.1773  EPtot      =        97.8890
 BOND   =         0.1824  ANGLE   =         0.5484  DIHED      =         0.3048
 UB     =         0.0000  IMP     =         0.0000  CMAP       =         0.3944
 1-4 NB =         0.1961  1-4 EEL =         1.6481  VDWAALS    =        31.7147
 EELEC  =        72.0497  EHBOND  =         0.0000  RESTRAINT  =         0.0000
 EKCMT  =         8.1358  VIRIAL  =       141.7042  VOLUME     =      1980.6875
                                                    Density    =         0.0033
 ------------------------------------------------------------------------------

      A V E R A G E S   O V E R    9000 S T E P S

 NSTEP =     9000   TIME(PS) =       9.000  TEMP(K) =     3.10  PRESS =  -354.5
 Etot   =   -241147.7183  EKtot   =       345.2247  EPtot      =   -241492.9430
 BOND   =       233.3792  ANGLE   =      1098.4622  DIHED      =      1899.2778
 UB     =         0.0000  IMP     =         0.0000  CMAP       =       298.2130
 1-4 NB =      1410.3937  1-4 EEL =     16556.1830  VDWAALS    =     40744.9636
 EELEC  =   -303733.8155  EHBOND  =         0.0000  RESTRAINT  =         0.0000
 EKCMT  =       285.4352  VIRIAL  =      5037.7133  VOLUME     =    631448.0879
                                                    Density    =         0.8791
 ------------------------------------------------------------------------------

      R M S  F L U C T U A T I O N S

 NSTEP =     9000   TIME(PS) =       9.000  TEMP(K) =    13.22  PRESS =   737.3
 Etot   =      2453.1685  EKtot   =      1470.2048  EPtot      =      2041.4477
 BOND   =         2.6085  ANGLE   =         2.8137  DIHED      =         9.5913
 UB     =         0.0000  IMP     =         0.0000  CMAP       =         3.3651
 1-4 NB =         6.0638  1-4 EEL =        12.3261  VDWAALS    =      1961.8827
 EELEC  =      2666.8303  EHBOND  =         0.0000  RESTRAINT  =         0.0000
 EKCMT  =       523.8672  VIRIAL  =     10579.9493  VOLUME     =     28508.9370
                                                    Density    =         0.0401
 ------------------------------------------------------------------------------
