-------------------------------------------------------
          Amber 20 PMEMD                              2020
          -------------------------------------------------------

  [-O]verwriting output

File Assignments:

 Here is the input file:

npt for deltaG calculation
 &cntrl
  imin=0,
  irest=0,
  ntx=1,
  ig=-1,
  nstlim=9000,
  dt=0.001,
  cut=10.0,
  ntp=1,
  pres0=1.01325,
  tempi=0.0,
  temp0=0.0,
  ntt=3,
  gamma_ln=2.0,
  ntpr=500,
  ntwr=500,
  ntwx=10000,
  ntave=500,
  ioutfm=1,
  ntwv=-1,
  iwrap=1,
  ntc=2,
  ntf=2,
/
&ewald
nfft1=48, nfft2=48, nfft3=48,
/

Note: ig = -1. Setting random seed to   293145 based on wallclock time in
      microseconds.

--------------------------------------------------------------------------------
   1.  RESOURCE   USE:
--------------------------------------------------------------------------------

 getting box info from netcdf restart file
 NATOM  =   74234 NTYPES =      21 NBONH =   53929 MBONA  =   20409
 NTHETH =    7726 MTHETA =    4875 NPHIH =   15666 MPHIA  =   15256
 NHPARM =       0 NPARM  =       0 NNB   =  155920 NRES   =   17278
 NBONA  =   20409 NTHETA =    4875 NPHIA =   15256 NUMBND =     100
 NUMANG =     241 NPTRA  =     229 NATYP =      47 NPHB   =       0
 IFBOX  =       1 NMXRS  =      92 IFCAP =       0 NEXTRA =   16845
 NCOPY  =       0

     BOX TYPE: RECTILINEAR

--------------------------------------------------------------------------------
   2.  CONTROL  DATA  FOR  THE  RUN
--------------------------------------------------------------------------------

default_name

General flags:
     imin    =       0, nmropt  =       0

Nature and format of input:
     ntx     =       1, irest   =       0, ntrx    =       1

Nature and format of output:
     ntxo    =       2, ntpr    =     500, ntrx    =       1, ntwr    =     500
     iwrap   =       1, ntwx    =   10000, ntwv    =      -1, ntwe    =       0
     ioutfm  =       1, ntwprt  =       0, idecomp =       0, rbornstat=      0

Potential function:
     ntf     =       2, ntb     =       2, igb     =       0, nsnb    =      25
     ipol    =       0, gbsa    =       0, iesp    =       0
     dielc   =   1.00000, cut     =  10.00000, intdiel =   1.00000

Frozen or restrained atoms:
     ibelly  =       0, ntr     =       0

Molecular dynamics:
     nstlim  =      9000, nscm    =      1000, nrespa  =         1
     t       =   0.00000, dt      =   0.00100, vlimit  =  -1.00000

Langevin dynamics temperature regulation:
     ig      =  293145
     temp0   =   0.00000, tempi   =   0.00000, gamma_ln=   2.00000

Pressure regulation:
     ntp     =       1
     pres0   =   1.01325, comp    =  44.60000, taup    =   1.00000

SHAKE:
     ntc     =       2, jfastw  =       0
     tol     =   0.00001

Extra-points options:
     frameon =       1, chngmask=       1

Ewald parameters:
     verbose =       0, ew_type =       0, nbflag  =       1, use_pme =       1
     vdwmeth =       1, eedmeth =       1, netfrc  =       1
     Box X =   90.604   Box Y =   92.104   Box Z =   84.259
     Alpha =   90.000   Beta  =   90.000   Gamma =   90.000
     NFFT1 =   48       NFFT2 =   48       NFFT3 =   48
     Cutoff=   10.000   Tol   =0.100E-04
     Ewald Coefficient =  0.27511
     Interpolation order =    4

--------------------------------------------------------------------------------
   3.  ATOMIC COORDINATES AND VELOCITIES
--------------------------------------------------------------------------------

default_name
 begin time read from input coords =     0.000 ps

 Number of triangulated 3-point waters found:    16845

     Sum of charges from parm topology file =  -7.99991075
     Assuming uniform neutralizing plasma

--------------------------------------------------------------------------------
   4.  RESULTS
 NSTEP =        0   TIME(PS) =       0.000  TEMP(K) =     0.00  PRESS = -1196.4
 Etot   =   -368348.4457  EKtot   =         0.0000  EPtot      =   -368348.4457
 BOND   =       232.1421  ANGLE   =      1149.6879  DIHED      =      1783.4201
 UB     =         0.0000  IMP     =         0.0000  CMAP       =       313.6084
 1-4 NB =      1257.4526  1-4 EEL =     16636.7317  VDWAALS    =     79772.7489
 EELEC  =   -469494.2373  EHBOND  =         0.0000  RESTRAINT  =         0.0000
 EKCMT  =         0.0000  VIRIAL  =     18163.9335  VOLUME     =    703139.0429
                                                    Density    =         0.8326
 ------------------------------------------------------------------------------

      A V E R A G E S   O V E R     500 S T E P S

 NSTEP =      500   TIME(PS) =       0.500  TEMP(K) =    25.44  PRESS =   839.8
 Etot   =   -248406.1120  EKtot   =      2988.6179  EPtot      =   -251394.7299
 BOND   =       227.4220  ANGLE   =      1142.6284  DIHED      =      1790.8942
 UB     =         0.0000  IMP     =         0.0000  CMAP       =       313.1914
 1-4 NB =      1272.2316  1-4 EEL =     16651.3119  VDWAALS    =     45502.7337
 EELEC  =   -318295.1431  EHBOND  =         0.0000  RESTRAINT  =         0.0000
 EKCMT  =      2233.3666  VIRIAL  =    -10633.6187  VOLUME     =    718548.4824
                                                    Density    =         0.8148
 ------------------------------------------------------------------------------

      R M S  F L U C T U A T I O N S

 NSTEP =      500   TIME(PS) =       0.500  TEMP(K) =    51.02  PRESS =  3006.3
 Etot   =      4533.4955  EKtot   =      5994.1502  EPtot      =      5485.6352
 BOND   =         2.5801  ANGLE   =         3.5713  DIHED      =        11.7751
 UB     =         0.0000  IMP     =         0.0000  CMAP       =         2.0336
 1-4 NB =         7.5508  1-4 EEL =        10.2167  VDWAALS    =      8765.0787
 EELEC  =      9873.7809  EHBOND  =         0.0000  RESTRAINT  =         0.0000
 EKCMT  =       685.5198  VIRIAL  =     46265.5631  VOLUME     =      3353.4091
                                                    Density    =         0.0038
 ------------------------------------------------------------------------------

      A V E R A G E S   O V E R     500 S T E P S

 NSTEP =     1000   TIME(PS) =       1.000  TEMP(K) =    10.81  PRESS =  -488.7
 Etot   =   -252505.5868  EKtot   =      1269.9077  EPtot      =   -253775.4946
 BOND   =       225.4681  ANGLE   =      1143.1971  DIHED      =      1810.0422
 UB     =         0.0000  IMP     =         0.0000  CMAP       =       312.3368
 1-4 NB =      1275.3336  1-4 EEL =     16657.6705  VDWAALS    =     42959.4296
 EELEC  =   -318158.9725  EHBOND  =         0.0000  RESTRAINT  =         0.0000
 EKCMT  =      1081.2863  VIRIAL  =      8599.8986  VOLUME     =    712289.7756
                                                    Density    =         0.8219
 ------------------------------------------------------------------------------

      R M S  F L U C T U A T I O N S

 NSTEP =     1000   TIME(PS) =       1.000  TEMP(K) =     2.19  PRESS =    55.7
 Etot   =       746.2976  EKtot   =       257.1133  EPtot      =       489.3611
 BOND   =         1.6025  ANGLE   =         1.8061  DIHED      =         1.8113
 UB     =         0.0000  IMP     =         0.0000  CMAP       =         0.8961
 1-4 NB =         2.7782  1-4 EEL =         4.8464  VDWAALS    =       313.4858
 EELEC  =       790.4391  EHBOND  =         0.0000  RESTRAINT  =         0.0000
 EKCMT  =       216.2772  VIRIAL  =      1076.1623  VOLUME     =      2255.9594
                                                    Density    =         0.0026
 ------------------------------------------------------------------------------

      A V E R A G E S   O V E R     500 S T E P S

 NSTEP =     1500   TIME(PS) =       1.500  TEMP(K) =     5.40  PRESS =  -342.6
 Etot   =   -254374.8042  EKtot   =       633.9348  EPtot      =   -255008.7390
 BOND   =       225.4157  ANGLE   =      1141.2613  DIHED      =      1804.0689
 UB     =         0.0000  IMP     =         0.0000  CMAP       =       315.4864
 1-4 NB =      1269.3382  1-4 EEL =     16647.9463  VDWAALS    =     43729.7810
 EELEC  =   -320142.0367  EHBOND  =         0.0000  RESTRAINT  =         0.0000
 EKCMT  =       544.7203  VIRIAL  =      5765.8572  VOLUME     =    705824.7312
                                                    Density    =         0.8295
 ------------------------------------------------------------------------------

      R M S  F L U C T U A T I O N S

 NSTEP =     1500   TIME(PS) =       1.500  TEMP(K) =     1.07  PRESS =    25.2
 Etot   =       371.7500  EKtot   =       125.4103  EPtot      =       246.6662
 BOND   =         0.7976  ANGLE   =         2.0848  DIHED      =         2.4500
 UB     =         0.0000  IMP     =         0.0000  CMAP       =         1.8480
 1-4 NB =         1.8612  1-4 EEL =         3.9674  VDWAALS    =        90.8613
 EELEC  =       332.5395  EHBOND  =         0.0000  RESTRAINT  =         0.0000
 EKCMT  =       107.7248  VIRIAL  =       491.2778  VOLUME     =      1569.5532
                                                    Density    =         0.0018
 ------------------------------------------------------------------------------

      A V E R A G E S   O V E R     500 S T E P S

 NSTEP =     2000   TIME(PS) =       2.000  TEMP(K) =     2.79  PRESS =  -309.2
 Etot   =   -255324.5152  EKtot   =       328.0921  EPtot      =   -255652.6073
 BOND   =       224.5560  ANGLE   =      1139.5692  DIHED      =      1804.2916
 UB     =         0.0000  IMP     =         0.0000  CMAP       =       314.0871
 1-4 NB =      1271.6551  1-4 EEL =     16650.5836  VDWAALS    =     43929.0970
 EELEC  =   -320986.4468  EHBOND  =         0.0000  RESTRAINT  =         0.0000
 EKCMT  =       283.6048  VIRIAL  =      4961.6679  VOLUME     =    700809.9757
                                                    Density    =         0.8354
 ------------------------------------------------------------------------------

      R M S  F L U C T U A T I O N S

 NSTEP =     2000   TIME(PS) =       2.000  TEMP(K) =     0.52  PRESS =     8.5
 Etot   =       195.1841  EKtot   =        61.6194  EPtot      =       133.5963
 BOND   =         0.8362  ANGLE   =         2.2711  DIHED      =         1.9048
 UB     =         0.0000  IMP     =         0.0000  CMAP       =         0.8421
 1-4 NB =         1.2541  1-4 EEL =         2.6739  VDWAALS    =        24.3831
 EELEC  =       151.9205  EHBOND  =         0.0000  RESTRAINT  =         0.0000
 EKCMT  =        52.2993  VIRIAL  =       128.0124  VOLUME     =      1403.8251
                                                    Density    =         0.0017
 ------------------------------------------------------------------------------

      A V E R A G E S   O V E R     500 S T E P S

 NSTEP =     2500   TIME(PS) =       2.500  TEMP(K) =     1.54  PRESS =  -321.7
 Etot   =   -255832.9707  EKtot   =       180.8418  EPtot      =   -256013.8125
 BOND   =       222.3352  ANGLE   =      1133.4923  DIHED      =      1811.3881
 UB     =         0.0000  IMP     =         0.0000  CMAP       =       314.2879
 1-4 NB =      1276.0143  1-4 EEL =     16657.7161  VDWAALS    =     43923.9407
 EELEC  =   -321352.9871  EHBOND  =         0.0000  RESTRAINT  =         0.0000
 EKCMT  =       158.8916  VIRIAL  =      4991.6845  VOLUME     =    695879.9155
                                                    Density    =         0.8413
 ------------------------------------------------------------------------------

      R M S  F L U C T U A T I O N S

 NSTEP =     2500   TIME(PS) =       2.500  TEMP(K) =     0.24  PRESS =     9.8
 Etot   =       109.9251  EKtot   =        27.9103  EPtot      =        82.0624
 BOND   =         0.4817  ANGLE   =         1.1836  DIHED      =         1.3561
 UB     =         0.0000  IMP     =         0.0000  CMAP       =         0.9726
 1-4 NB =         1.2783  1-4 EEL =         2.2911  VDWAALS    =        28.7338
 EELEC  =        77.6392  EHBOND  =         0.0000  RESTRAINT  =         0.0000
 EKCMT  =        23.2940  VIRIAL  =       145.9844  VOLUME     =      1457.9253
                                                    Density    =         0.0018
 ------------------------------------------------------------------------------

      A V E R A G E S   O V E R     500 S T E P S

 NSTEP =     7500   TIME(PS) =       7.500  TEMP(K) =     0.91  PRESS =  -579.3
 Etot   =   -257813.8826  EKtot   =       106.3742  EPtot      =   -257920.2568
 BOND   =       222.5314  ANGLE   =      1139.4646  DIHED      =      1817.7352
 UB     =         0.0000  IMP     =         0.0000  CMAP       =       311.5020
 1-4 NB =      1275.4840  1-4 EEL =     16657.3178  VDWAALS    =     43382.3035
 EELEC  =   -322726.5953  EHBOND  =         0.0000  RESTRAINT  =         0.0000
 EKCMT  =       102.7654  VIRIAL  =      8054.8759  VOLUME     =    635760.2604
                                                    Density    =         0.9209
 ------------------------------------------------------------------------------

      R M S  F L U C T U A T I O N S

 NSTEP =     7500   TIME(PS) =       7.500  TEMP(K) =     0.06  PRESS =     9.5
 Etot   =        79.0379  EKtot   =         7.2717  EPtot      =        86.1354
 BOND   =         0.0705  ANGLE   =         0.4254  DIHED      =         0.4680
 UB     =         0.0000  IMP     =         0.0000  CMAP       =         0.2549
 1-4 NB =         0.3304  1-4 EEL =         1.0830  VDWAALS    =        21.8022
 EELEC  =        68.2104  EHBOND  =         0.0000  RESTRAINT  =         0.0000
 EKCMT  =         6.9850  VIRIAL  =       108.2752  VOLUME     =      2376.9161
                                                    Density    =         0.0034
 ------------------------------------------------------------------------------

      A V E R A G E S   O V E R     500 S T E P S

 NSTEP =     8000   TIME(PS) =       8.000  TEMP(K) =     1.06  PRESS =  -607.6
 Etot   =   -258112.2514  EKtot   =       124.8932  EPtot      =   -258237.1446
 BOND   =       222.4583  ANGLE   =      1138.5442  DIHED      =      1818.7108
 UB     =         0.0000  IMP     =         0.0000  CMAP       =       309.8970
 1-4 NB =      1276.0506  1-4 EEL =     16658.2182  VDWAALS    =     43321.3789
 EELEC  =   -322982.4027  EHBOND  =         0.0000  RESTRAINT  =         0.0000
 EKCMT  =       120.8788  VIRIAL  =      8350.6742  VOLUME     =    627374.2291
                                                    Density    =         0.9332
 ------------------------------------------------------------------------------

      R M S  F L U C T U A T I O N S

 NSTEP =     8000   TIME(PS) =       8.000  TEMP(K) =     0.03  PRESS =     6.8
 Etot   =        92.5830  EKtot   =         3.6061  EPtot      =        95.5979
 BOND   =         0.1393  ANGLE   =         0.4201  DIHED      =         0.1852
 UB     =         0.0000  IMP     =         0.0000  CMAP       =         0.5232
 1-4 NB =         0.1712  1-4 EEL =         0.7260  VDWAALS    =        13.2551
 EELEC  =        86.0040  EHBOND  =         0.0000  RESTRAINT  =         0.0000
 EKCMT  =         3.8094  VIRIAL  =        71.6357  VOLUME     =      2462.6794
                                                    Density    =         0.0037
 ------------------------------------------------------------------------------

      A V E R A G E S   O V E R     500 S T E P S

 NSTEP =     8500   TIME(PS) =       8.500  TEMP(K) =     1.22  PRESS =  -622.2
 Etot   =   -258446.4966  EKtot   =       143.1952  EPtot      =   -258589.6918
 BOND   =       222.2053  ANGLE   =      1137.9140  DIHED      =      1819.4328
 UB     =         0.0000  IMP     =         0.0000  CMAP       =       310.0723
 1-4 NB =      1275.7026  1-4 EEL =     16657.2618  VDWAALS    =     43279.9711
 EELEC  =   -323292.2517  EHBOND  =         0.0000  RESTRAINT  =         0.0000
 EKCMT  =       140.2457  VIRIAL  =      8453.6410  VOLUME     =    618795.0151
                                                    Density    =         0.9461
 ------------------------------------------------------------------------------

      R M S  F L U C T U A T I O N S

 NSTEP =     8500   TIME(PS) =       8.500  TEMP(K) =     0.08  PRESS =     4.8
 Etot   =       103.2325  EKtot   =         9.5130  EPtot      =       112.6521
 BOND   =         0.0540  ANGLE   =         0.1626  DIHED      =         0.4720
 UB     =         0.0000  IMP     =         0.0000  CMAP       =         0.4319
 1-4 NB =         0.2005  1-4 EEL =         0.5951  VDWAALS    =        14.6932
 EELEC  =       113.7389  EHBOND  =         0.0000  RESTRAINT  =         0.0000
 EKCMT  =         9.3810  VIRIAL  =        67.7183  VOLUME     =      2484.2375
                                                    Density    =         0.0038
 ------------------------------------------------------------------------------

      A V E R A G E S   O V E R     500 S T E P S

 NSTEP =     9000   TIME(PS) =       9.000  TEMP(K) =     1.52  PRESS =  -602.8
 Etot   =   -258838.6678  EKtot   =       178.3253  EPtot      =   -259016.9930
 BOND   =       221.9931  ANGLE   =      1137.7427  DIHED      =      1818.7404
 UB     =         0.0000  IMP     =         0.0000  CMAP       =       310.4178
 1-4 NB =      1275.6680  1-4 EEL =     16658.0945  VDWAALS    =     43333.4956
 EELEC  =   -323773.1451  EHBOND  =         0.0000  RESTRAINT  =         0.0000
 EKCMT  =       174.8694  VIRIAL  =      8118.5266  VOLUME     =    610336.4998
                                                    Density    =         0.9592
 ------------------------------------------------------------------------------

      R M S  F L U C T U A T I O N S

 NSTEP =     9000   TIME(PS) =       9.000  TEMP(K) =     0.06  PRESS =    13.2
 Etot   =       121.5344  EKtot   =         6.9544  EPtot      =       128.1619
 BOND   =         0.0854  ANGLE   =         0.3009  DIHED      =         0.3208
 UB     =         0.0000  IMP     =         0.0000  CMAP       =         0.1662
 1-4 NB =         0.2396  1-4 EEL =         0.7923  VDWAALS    =        36.4344
 EELEC  =       162.4569  EHBOND  =         0.0000  RESTRAINT  =         0.0000
 EKCMT  =         6.7859  VIRIAL  =       196.9111  VOLUME     =      2369.6094
                                                    Density    =         0.0037
 ------------------------------------------------------------------------------

      A V E R A G E S   O V E R    9000 S T E P S

 NSTEP =     9000   TIME(PS) =       9.000  TEMP(K) =     3.15  PRESS =  -368.2
 Etot   =   -256174.6704  EKtot   =       369.8240  EPtot      =   -256544.4943
 BOND   =       222.8888  ANGLE   =      1137.5482  DIHED      =      1812.7652
 UB     =         0.0000  IMP     =         0.0000  CMAP       =       312.9247
 1-4 NB =      1275.4656  1-4 EEL =     16656.8090  VDWAALS    =     43747.7535
 EELEC  =   -321710.6493  EHBOND  =         0.0000  RESTRAINT  =         0.0000
 EKCMT  =       305.4307  VIRIAL  =      5500.9748  VOLUME     =    669283.7180
                                                    Density    =         0.8768
 ------------------------------------------------------------------------------

      R M S  F L U C T U A T I O N S

 NSTEP =     9000   TIME(PS) =       9.000  TEMP(K) =    13.43  PRESS =   774.7
 Etot   =      2620.2906  EKtot   =      1577.2340  EPtot      =      2186.9740
 BOND   =         1.8130  ANGLE   =         3.6097  DIHED      =         7.5045
 UB     =         0.0000  IMP     =         0.0000  CMAP       =         1.8974
 1-4 NB =         3.0067  1-4 EEL =         4.6615  VDWAALS    =      2129.5913
 EELEC  =      2763.0078  EHBOND  =         0.0000  RESTRAINT  =         0.0000
 EKCMT  =       554.6594  VIRIAL  =     11670.7417  VOLUME     =     31937.2810
                                                    Density    =         0.0425
 ------------------------------------------------------------------------------
