-------------------------------------------------------
          Amber 20 PMEMD                              2020
          -------------------------------------------------------

  [-O]verwriting output

File Assignments:

 Here is the input file:

npt for deltaG calculation
 &cntrl
  imin=0,
  irest=0,
  ntx=1,
  ig=-1,
  nstlim=9000,
  dt=0.001,
  cut=10.0,
  ntp=1,
  pres0=1.01325,
  tempi=0.0,
  temp0=0.0,
  ntt=3,
  gamma_ln=2.0,
  ntpr=500,
  ntwr=500,
  ntwx=10000,
  ntave=500,
  ioutfm=1,
  ntwv=-1,
  iwrap=1,
  ntc=2,
  ntf=2,
/
&ewald
nfft1=48, nfft2=48, nfft3=48,
/

Note: ig = -1. Setting random seed to   702662 based on wallclock time in
      microseconds.

--------------------------------------------------------------------------------
   1.  RESOURCE   USE:
--------------------------------------------------------------------------------

 getting box info from netcdf restart file
 NATOM  =   70014 NTYPES =      34 NBONH =   50763 MBONA  =   19355
 NTHETH =    7724 MTHETA =    4877 NPHIH =   15657 MPHIA  =   15272
 NHPARM =       0 NPARM  =       0 NNB   =  148535 NRES   =   16223
 NBONA  =   19355 NTHETA =    4877 NPHIA =   15272 NUMBND =     115
 NUMANG =     264 NPTRA  =     251 NATYP =      63 NPHB   =       0
 IFBOX  =       1 NMXRS  =      92 IFCAP =       0 NEXTRA =   15790
 NCOPY  =       0

     BOX TYPE: RECTILINEAR

--------------------------------------------------------------------------------
   2.  CONTROL  DATA  FOR  THE  RUN
--------------------------------------------------------------------------------

default_name

General flags:
     imin    =       0, nmropt  =       0

Nature and format of input:
     ntx     =       1, irest   =       0, ntrx    =       1

Nature and format of output:
     ntxo    =       2, ntpr    =     500, ntrx    =       1, ntwr    =     500
     iwrap   =       1, ntwx    =   10000, ntwv    =      -1, ntwe    =       0
     ioutfm  =       1, ntwprt  =       0, idecomp =       0, rbornstat=      0

Potential function:
     ntf     =       2, ntb     =       2, igb     =       0, nsnb    =      25
     ipol    =       0, gbsa    =       0, iesp    =       0
     dielc   =   1.00000, cut     =  10.00000, intdiel =   1.00000

Frozen or restrained atoms:
     ibelly  =       0, ntr     =       0

Molecular dynamics:
     nstlim  =      9000, nscm    =      1000, nrespa  =         1
     t       =   0.00000, dt      =   0.00100, vlimit  =  -1.00000

Langevin dynamics temperature regulation:
     ig      =  702662
     temp0   =   0.00000, tempi   =   0.00000, gamma_ln=   2.00000

Pressure regulation:
     ntp     =       1
     pres0   =   1.01325, comp    =  44.60000, taup    =   1.00000

SHAKE:
     ntc     =       2, jfastw  =       0
     tol     =   0.00001

Extra-points options:
     frameon =       1, chngmask=       1

Ewald parameters:
     verbose =       0, ew_type =       0, nbflag  =       1, use_pme =       1
     vdwmeth =       1, eedmeth =       1, netfrc  =       1
     Box X =   87.944   Box Y =   94.221   Box Z =   80.394
     Alpha =   90.000   Beta  =   90.000   Gamma =   90.000
     NFFT1 =   48       NFFT2 =   48       NFFT3 =   48
     Cutoff=   10.000   Tol   =0.100E-04
     Ewald Coefficient =  0.27511
     Interpolation order =    4

--------------------------------------------------------------------------------
   3.  ATOMIC COORDINATES AND VELOCITIES
--------------------------------------------------------------------------------

default_name
 begin time read from input coords =     0.000 ps

 Number of triangulated 3-point waters found:    15790

     Sum of charges from parm topology file =  -7.99891551
     Assuming uniform neutralizing plasma

--------------------------------------------------------------------------------
   4.  RESULTS
 NSTEP =        0   TIME(PS) =       0.000  TEMP(K) =     0.00  PRESS = -1428.8
 Etot   =   -345979.1833  EKtot   =         0.0000  EPtot      =   -345979.1833
 BOND   =       244.6624  ANGLE   =      1100.0583  DIHED      =      1856.2673
 UB     =         0.0000  IMP     =         0.0000  CMAP       =       302.7272
 1-4 NB =      1376.5389  1-4 EEL =     16494.6178  VDWAALS    =     73721.4612
 EELEC  =   -441075.5164  EHBOND  =         0.0000  RESTRAINT  =         0.0000
 EKCMT  =         0.0000  VIRIAL  =     20550.9994  VOLUME     =    666157.1112
                                                    Density    =         0.8315
 ------------------------------------------------------------------------------

      A V E R A G E S   O V E R     500 S T E P S

 NSTEP =      500   TIME(PS) =       0.500  TEMP(K) =    25.22  PRESS =   680.9
 Etot   =   -234017.1358  EKtot   =      2804.3223  EPtot      =   -236821.4581
 BOND   =       240.0103  ANGLE   =      1091.7595  DIHED      =      1866.6205
 UB     =         0.0000  IMP     =         0.0000  CMAP       =       303.8529
 1-4 NB =      1393.6582  1-4 EEL =     16519.2129  VDWAALS    =     41968.7213
 EELEC  =   -300205.2937  EHBOND  =         0.0000  RESTRAINT  =         0.0000
 EKCMT  =      2106.9168  VIRIAL  =     -7757.9770  VOLUME     =    679112.8685
                                                    Density    =         0.8157
 ------------------------------------------------------------------------------

      R M S  F L U C T U A T I O N S

 NSTEP =      500   TIME(PS) =       0.500  TEMP(K) =    50.30  PRESS =  2937.8
 Etot   =      4227.5821  EKtot   =      5592.4913  EPtot      =      5119.7346
 BOND   =         3.4115  ANGLE   =         3.9349  DIHED      =        10.6440
 UB     =         0.0000  IMP     =         0.0000  CMAP       =         1.1956
 1-4 NB =         8.2863  1-4 EEL =        16.0805  VDWAALS    =      8184.3123
 EELEC  =      9241.3384  EHBOND  =         0.0000  RESTRAINT  =         0.0000
 EKCMT  =       652.7748  VIRIAL  =     42828.9511  VOLUME     =      3070.5803
                                                    Density    =         0.0037
 ------------------------------------------------------------------------------

      A V E R A G E S   O V E R     500 S T E P S

 NSTEP =     1000   TIME(PS) =       1.000  TEMP(K) =    10.85  PRESS =  -542.6
 Etot   =   -237899.8165  EKtot   =      1206.0160  EPtot      =   -239105.8326
 BOND   =       236.5059  ANGLE   =      1093.8074  DIHED      =      1883.6379
 UB     =         0.0000  IMP     =         0.0000  CMAP       =       302.2708
 1-4 NB =      1403.7426  1-4 EEL =     16548.4122  VDWAALS    =     39869.9184
 EELEC  =   -300444.1276  EHBOND  =         0.0000  RESTRAINT  =         0.0000
 EKCMT  =      1035.5598  VIRIAL  =      8911.6310  VOLUME     =    671867.2451
                                                    Density    =         0.8244
 ------------------------------------------------------------------------------

      R M S  F L U C T U A T I O N S

 NSTEP =     1000   TIME(PS) =       1.000  TEMP(K) =     2.21  PRESS =    95.5
 Etot   =       713.8718  EKtot   =       245.6566  EPtot      =       468.4814
 BOND   =         0.9054  ANGLE   =         2.2496  DIHED      =         2.1738
 UB     =         0.0000  IMP     =         0.0000  CMAP       =         1.6974
 1-4 NB =         2.0524  1-4 EEL =         4.7584  VDWAALS    =       386.2742
 EELEC  =       851.6952  EHBOND  =         0.0000  RESTRAINT  =         0.0000
 EKCMT  =       209.6790  VIRIAL  =      1601.8715  VOLUME     =      2407.5208
                                                    Density    =         0.0030
 ------------------------------------------------------------------------------

      A V E R A G E S   O V E R     500 S T E P S

 NSTEP =     1500   TIME(PS) =       1.500  TEMP(K) =     5.41  PRESS =  -336.6
 Etot   =   -239672.8398  EKtot   =       601.1411  EPtot      =   -240273.9809
 BOND   =       237.2210  ANGLE   =      1093.3200  DIHED      =      1887.8271
 UB     =         0.0000  IMP     =         0.0000  CMAP       =       302.5443
 1-4 NB =      1404.5820  1-4 EEL =     16544.2558  VDWAALS    =     40701.8009
 EELEC  =   -302445.5320  EHBOND  =         0.0000  RESTRAINT  =         0.0000
 EKCMT  =       520.0958  VIRIAL  =      5358.3529  VOLUME     =    665630.0185
                                                    Density    =         0.8322
 ------------------------------------------------------------------------------

      R M S  F L U C T U A T I O N S

 NSTEP =     1500   TIME(PS) =       1.500  TEMP(K) =     1.03  PRESS =    14.9
 Etot   =       350.5981  EKtot   =       114.9988  EPtot      =       236.0067
 BOND   =         0.8515  ANGLE   =         2.2908  DIHED      =         2.1739
 UB     =         0.0000  IMP     =         0.0000  CMAP       =         1.2268
 1-4 NB =         1.1215  1-4 EEL =         2.8571  VDWAALS    =        75.2289
 EELEC  =       307.3249  EHBOND  =         0.0000  RESTRAINT  =         0.0000
 EKCMT  =        99.5819  VIRIAL  =       304.0195  VOLUME     =      1442.9277
                                                    Density    =         0.0018
 ------------------------------------------------------------------------------

      A V E R A G E S   O V E R     500 S T E P S

 NSTEP =     2000   TIME(PS) =       2.000  TEMP(K) =     2.87  PRESS =  -301.0
 Etot   =   -240583.9843  EKtot   =       319.4462  EPtot      =   -240903.4305
 BOND   =       235.5319  ANGLE   =      1088.9001  DIHED      =      1892.1272
 UB     =         0.0000  IMP     =         0.0000  CMAP       =       301.2694
 1-4 NB =      1408.7162  1-4 EEL =     16550.0317  VDWAALS    =     40884.5865
 EELEC  =   -303264.5935  EHBOND  =         0.0000  RESTRAINT  =         0.0000
 EKCMT  =       275.4510  VIRIAL  =      4571.0139  VOLUME     =    660906.7370
                                                    Density    =         0.8381
 ------------------------------------------------------------------------------

      R M S  F L U C T U A T I O N S

 NSTEP =     2000   TIME(PS) =       2.000  TEMP(K) =     0.55  PRESS =    10.9
 Etot   =       188.4216  EKtot   =        61.6611  EPtot      =       126.8604
 BOND   =         0.7577  ANGLE   =         1.4900  DIHED      =         1.7093
 UB     =         0.0000  IMP     =         0.0000  CMAP       =         0.8987
 1-4 NB =         1.2614  1-4 EEL =         3.0223  VDWAALS    =        33.8076
 EELEC  =       160.3619  EHBOND  =         0.0000  RESTRAINT  =         0.0000
 EKCMT  =        54.1068  VIRIAL  =       209.3984  VOLUME     =      1283.4695
                                                    Density    =         0.0016
 ------------------------------------------------------------------------------

      A V E R A G E S   O V E R     500 S T E P S

 NSTEP =     2500   TIME(PS) =       2.500  TEMP(K) =     1.53  PRESS =  -262.2
 Etot   =   -241071.3923  EKtot   =       170.2193  EPtot      =   -241241.6116
 BOND   =       233.9641  ANGLE   =      1090.0533  DIHED      =      1894.2877
 UB     =         0.0000  IMP     =         0.0000  CMAP       =       301.6133
 1-4 NB =      1411.1876  1-4 EEL =     16553.8772  VDWAALS    =     41028.7639
 EELEC  =   -303755.3586  EHBOND  =         0.0000  RESTRAINT  =         0.0000
 EKCMT  =       146.8997  VIRIAL  =      3864.5693  VOLUME     =    656800.6575
                                                    Density    =         0.8434
 ------------------------------------------------------------------------------

      R M S  F L U C T U A T I O N S

 NSTEP =     2500   TIME(PS) =       2.500  TEMP(K) =     0.27  PRESS =     6.2
 Etot   =       101.1579  EKtot   =        30.5420  EPtot      =        70.6359
 BOND   =         0.4762  ANGLE   =         1.6608  DIHED      =         1.1312
 UB     =         0.0000  IMP     =         0.0000  CMAP       =         0.8186
 1-4 NB =         0.5837  1-4 EEL =         2.1037  VDWAALS    =        25.7593
 EELEC  =        91.6317  EHBOND  =         0.0000  RESTRAINT  =         0.0000
 EKCMT  =        26.1615  VIRIAL  =        83.7188  VOLUME     =      1108.0201
                                                    Density    =         0.0014
 ------------------------------------------------------------------------------

      A V E R A G E S   O V E R     500 S T E P S

 NSTEP =     7500   TIME(PS) =       7.500  TEMP(K) =     0.70  PRESS =  -496.2
 Etot   =   -242356.9326  EKtot   =        78.0928  EPtot      =   -242435.0254
 BOND   =       232.9024  ANGLE   =      1097.8517  DIHED      =      1889.1297
 UB     =         0.0000  IMP     =         0.0000  CMAP       =       296.4860
 1-4 NB =      1415.4497  1-4 EEL =     16548.1115  VDWAALS    =     40528.6066
 EELEC  =   -304443.5629  EHBOND  =         0.0000  RESTRAINT  =         0.0000
 EKCMT  =        76.5285  VIRIAL  =      6618.8799  VOLUME     =    610660.9474
                                                    Density    =         0.9071
 ------------------------------------------------------------------------------

      R M S  F L U C T U A T I O N S

 NSTEP =     7500   TIME(PS) =       7.500  TEMP(K) =     0.03  PRESS =    13.2
 Etot   =        57.4450  EKtot   =         3.0857  EPtot      =        60.4388
 BOND   =         0.1243  ANGLE   =         0.1520  DIHED      =         0.5275
 UB     =         0.0000  IMP     =         0.0000  CMAP       =         0.2547
 1-4 NB =         0.2403  1-4 EEL =         0.4723  VDWAALS    =        25.5405
 EELEC  =        35.9216  EHBOND  =         0.0000  RESTRAINT  =         0.0000
 EKCMT  =         2.9474  VIRIAL  =       158.1181  VOLUME     =      1958.7271
                                                    Density    =         0.0029
 ------------------------------------------------------------------------------

      A V E R A G E S   O V E R     500 S T E P S

 NSTEP =     8000   TIME(PS) =       8.000  TEMP(K) =     0.78  PRESS =  -519.4
 Etot   =   -242566.5372  EKtot   =        86.7803  EPtot      =   -242653.3175
 BOND   =       233.3263  ANGLE   =      1097.8074  DIHED      =      1888.2043
 UB     =         0.0000  IMP     =         0.0000  CMAP       =       296.2557
 1-4 NB =      1414.9911  1-4 EEL =     16547.7012  VDWAALS    =     40489.6046
 EELEC  =   -304621.2081  EHBOND  =         0.0000  RESTRAINT  =         0.0000
 EKCMT  =        84.9038  VIRIAL  =      6855.8036  VOLUME     =    603741.1996
                                                    Density    =         0.9175
 ------------------------------------------------------------------------------

      R M S  F L U C T U A T I O N S

 NSTEP =     8000   TIME(PS) =       8.000  TEMP(K) =     0.03  PRESS =     5.5
 Etot   =        62.9351  EKtot   =         2.9429  EPtot      =        65.7856
 BOND   =         0.2136  ANGLE   =         0.2829  DIHED      =         0.4553
 UB     =         0.0000  IMP     =         0.0000  CMAP       =         0.3855
 1-4 NB =         0.5678  1-4 EEL =         1.0080  VDWAALS    =         8.0732
 EELEC  =        60.9095  EHBOND  =         0.0000  RESTRAINT  =         0.0000
 EKCMT  =         2.8869  VIRIAL  =        56.0528  VOLUME     =      2027.3261
                                                    Density    =         0.0031
 ------------------------------------------------------------------------------

      A V E R A G E S   O V E R     500 S T E P S

 NSTEP =     8500   TIME(PS) =       8.500  TEMP(K) =     0.91  PRESS =  -523.6
 Etot   =   -242799.9478  EKtot   =       101.1545  EPtot      =   -242901.1023
 BOND   =       233.9116  ANGLE   =      1098.6705  DIHED      =      1889.5775
 UB     =         0.0000  IMP     =         0.0000  CMAP       =       296.2034
 1-4 NB =      1413.6679  1-4 EEL =     16545.9626  VDWAALS    =     40505.1748
 EELEC  =   -304884.2707  EHBOND  =         0.0000  RESTRAINT  =         0.0000
 EKCMT  =        98.8271  VIRIAL  =      6844.5822  VOLUME     =    596719.9365
                                                    Density    =         0.9283
 ------------------------------------------------------------------------------

      R M S  F L U C T U A T I O N S

 NSTEP =     8500   TIME(PS) =       8.500  TEMP(K) =     0.03  PRESS =     4.6
 Etot   =        71.6083  EKtot   =         3.4826  EPtot      =        74.6372
 BOND   =         0.2187  ANGLE   =         0.4803  DIHED      =         0.3800
 UB     =         0.0000  IMP     =         0.0000  CMAP       =         0.3146
 1-4 NB =         0.2979  1-4 EEL =         0.3828  VDWAALS    =        18.9231
 EELEC  =        92.1956  EHBOND  =         0.0000  RESTRAINT  =         0.0000
 EKCMT  =         3.2978  VIRIAL  =        72.8272  VOLUME     =      2020.0687
                                                    Density    =         0.0031
 ------------------------------------------------------------------------------

      A V E R A G E S   O V E R     500 S T E P S

 NSTEP =     9000   TIME(PS) =       9.000  TEMP(K) =     0.99  PRESS =  -531.4
 Etot   =   -243055.2484  EKtot   =       109.6574  EPtot      =   -243164.9058
 BOND   =       234.0512  ANGLE   =      1099.5792  DIHED      =      1889.9325
 UB     =         0.0000  IMP     =         0.0000  CMAP       =       295.7687
 1-4 NB =      1413.1182  1-4 EEL =     16546.7753  VDWAALS    =     40496.3304
 EELEC  =   -305140.4613  EHBOND  =         0.0000  RESTRAINT  =         0.0000
 EKCMT  =       107.0024  VIRIAL  =      6873.4569  VOLUME     =    589767.0800
                                                    Density    =         0.9392
 ------------------------------------------------------------------------------

      R M S  F L U C T U A T I O N S

 NSTEP =     9000   TIME(PS) =       9.000  TEMP(K) =     0.05  PRESS =     8.3
 Etot   =        76.7489  EKtot   =         5.2698  EPtot      =        81.8564
 BOND   =         0.1258  ANGLE   =         0.3855  DIHED      =         0.5707
 UB     =         0.0000  IMP     =         0.0000  CMAP       =         0.1353
 1-4 NB =         0.3487  1-4 EEL =         0.6877  VDWAALS    =        20.8499
 EELEC  =        63.3596  EHBOND  =         0.0000  RESTRAINT  =         0.0000
 EKCMT  =         4.9040  VIRIAL  =        88.4958  VOLUME     =      2021.8783
                                                    Density    =         0.0032
 ------------------------------------------------------------------------------

      A V E R A G E S   O V E R    9000 S T E P S

 NSTEP =     9000   TIME(PS) =       9.000  TEMP(K) =     2.95  PRESS =  -317.4
 Etot   =   -241103.0596  EKtot   =       328.5260  EPtot      =   -241431.5856
 BOND   =       233.8998  ANGLE   =      1094.8735  DIHED      =      1889.7496
 UB     =         0.0000  IMP     =         0.0000  CMAP       =       299.5176
 1-4 NB =      1411.6489  1-4 EEL =     16549.2485  VDWAALS    =     40823.9710
 EELEC  =   -303734.4944  EHBOND  =         0.0000  RESTRAINT  =         0.0000
 EKCMT  =       269.7811  VIRIAL  =      4554.7488  VOLUME     =    636938.8308
                                                    Density    =         0.8711
 ------------------------------------------------------------------------------

      R M S  F L U C T U A T I O N S

 NSTEP =     9000   TIME(PS) =       9.000  TEMP(K) =    13.29  PRESS =   741.5
 Etot   =      2311.8177  EKtot   =      1477.3052  EPtot      =      1890.3339
 BOND   =         2.2579  ANGLE   =         3.1731  DIHED      =         6.8417
 UB     =         0.0000  IMP     =         0.0000  CMAP       =         2.3732
 1-4 NB =         5.9408  1-4 EEL =         9.1057  VDWAALS    =      1974.5830
 EELEC  =      2563.2455  EHBOND  =         0.0000  RESTRAINT  =         0.0000
 EKCMT  =       532.7288  VIRIAL  =     10634.8799  VOLUME     =     25451.0219
                                                    Density    =         0.0352
 ------------------------------------------------------------------------------
